/*--------------------------------*- C++ -*----------------------------------*\
| =========                 |                                                 |
| \\      /  F ield         | OpenFOAM: The Open Source CFD Toolbox           |
|  \\    /   O peration     | Version:  v2012                                 |
|   \\  /    A nd           | Website:  www.openfoam.com                      |
|    \\/     M anipulation  |                                                 |
\*---------------------------------------------------------------------------*/
FoamFile
{
    version     2.0;
    format      ascii;
    class       polyBoundaryMesh;
    location    "constant/polyMesh";
    object      boundary;
}
// * * * * * * * * * * * * * * * * * * * * * * * * * * * * * * * * * * * * * //

6
(
    top
    {
        type            symmetryPlane;
        inGroups        1(symmetryPlane);
        nFaces          60;
        startFace       4700;
    }
    bottom
    {
        type            symmetryPlane;
        inGroups        1(symmetryPlane);
        nFaces          20;
        startFace       4760;
    }
    plate
    {
        type            wall;
        inGroups        1(wall);
        nFaces          40;
        startFace       4780;
    }
    left
    {
        type            patch;
        nFaces          40;
        startFace       4820;
    }
    right
    {
        type            patch;
        nFaces          40;
        startFace       4860;
    }
    frontAndBack
    {
        type            empty;
        inGroups        1(empty);
        nFaces          4800;
        startFace       4900;
    }
)

// ************************************************************************* //
